
**** 03/04/22 14:14:43 ******* PSpice 17.4.0 (Nov 2018) ******* ID# 0 ********

 ** Profile: "SCHEMATIC1-Siim"  [ G:\ORCAD\TUTORIAL_DESIGN\D0304_003\D0304_003-PSpiceFiles\SCHEMATIC1\Siim.sim ] 


 ****     CIRCUIT DESCRIPTION


******************************************************************************




** Creating circuit file "Siim.cir" 
** WARNING: THIS AUTOMATICALLY GENERATED FILE MAY BE OVERWRITTEN BY SUBSEQUENT SIMULATIONS

*Libraries: 
* Profile Libraries :
* Local Libraries :
* From [PSPICE NETLIST] section of C:\SPB_Data\cdssetup\OrCAD_PSpice\17.4.0\PSpice.ini file:
.lib "nom.lib" 

*Analysis directives: 
.TRAN  0 50ns 0 
.OPTIONS ADVCONV
.PROBE64 V(alias(*)) I(alias(*)) W(alias(*)) D(alias(*)) NOISE(alias(*)) 
.INC "..\SCHEMATIC1.net" 



**** INCLUDING SCHEMATIC1.net ****
* source D0304_003
R_R3         VOUT VIN  1 TC=0,0 
V_V3         VIN 0  
+PULSE 0 1 10n 10p 10p 10n 20n
C_C1         0 VOUT  1n  TC=0,0 

**** RESUMING Siim.cir ****
.END

**** 03/04/22 14:14:43 ******* PSpice 17.4.0 (Nov 2018) ******* ID# 0 ********

 ** Profile: "SCHEMATIC1-Siim"  [ G:\ORCAD\TUTORIAL_DESIGN\D0304_003\D0304_003-PSpiceFiles\SCHEMATIC1\Siim.sim ] 


 ****     INITIAL TRANSIENT SOLUTION       TEMPERATURE =   27.000 DEG C


******************************************************************************



 NODE   VOLTAGE     NODE   VOLTAGE     NODE   VOLTAGE     NODE   VOLTAGE


(  VIN)    0.0000  ( VOUT)    0.0000  




    VOLTAGE SOURCE CURRENTS
    NAME         CURRENT

    V_V3         0.000E+00

    TOTAL POWER DISSIPATION   0.00E+00  WATTS



          JOB CONCLUDED

**** 03/04/22 14:14:43 ******* PSpice 17.4.0 (Nov 2018) ******* ID# 0 ********

 ** Profile: "SCHEMATIC1-Siim"  [ G:\ORCAD\TUTORIAL_DESIGN\D0304_003\D0304_003-PSpiceFiles\SCHEMATIC1\Siim.sim ] 


 ****     JOB STATISTICS SUMMARY


******************************************************************************



  Total job time (using Solver 1)   =         .06
